Version 4
SHEET 1 1224 680
SYMBOL AutoGenerated\\ideal 176 144 R0
SYMATTR InstName U1
TEXT -224 32 Left 2 !.lib "C:\\Users\\andre\\Desktop\\Universita\\PrimoAnno\\SecondoSemestre\\ProgettiAnalogici\\FilterProject\\LTspice\\opamp.lib"
