Version 4
SHEET 1 1224 680
SYMBOL AutoGenerated\\onepole 208 144 R0
SYMATTR InstName U1
TEXT -224 56 Left 2 !.lib "C:\\Users\\andre\\Desktop\\Universita\\PrimoAnno\\SecondoSemestre\\ProgettiAnalogici\\FilterProject\\LTspice\\opamp.lib"
